DSDR_Study/results/database/10_BusLoadFlow_DG_in.csv
Bus,Un (kV),Va (pu),Va (kV),ang a,Vb (pu),Vb (kV),ang b,Vc (pu),Vc (kV),ang c,Load P (kW),Load Q (kvar),Cap Q supplied (kvar),Source P (kW),Source Q (kvar)
SubstationHV,115.00,1.0000,66.3953,0.00,1.0000,66.3955,-120.00,1.0000,66.3951,120.00,-,-,-,310.3,1900.6
650,4.16,1.0084,2.4220,-30.25,1.0200,2.4498,-149.62,1.0057,2.4155,89.66,-,-,-,-,-
RG60,4.16,1.0715,2.5734,-30.25,1.0710,2.5723,-149.62,1.0748,2.5815,89.66,-,-,-,-,-
632,4.16,1.0482,2.5176,-30.64,1.0640,2.5554,-149.06,1.0361,2.4886,89.95,-,-,-,-,-
633,4.16,1.0454,2.5108,-30.64,1.0611,2.5485,-149.13,1.0344,2.4845,89.91,-,-,-,-,-
645,4.16,-,-,-,1.0563,2.5371,-149.19,1.0325,2.4799,90.03,170.0,125.0,-,-,-
nDL1,4.16,1.0457,2.5115,-30.71,1.0654,2.5588,-148.81,1.0313,2.4770,90.06,40.0,23.2,-,-,-
634,0.48,1.0221,0.2833,-31.28,1.0430,0.2890,-149.57,1.0161,0.2816,89.45,400.0,290.0,-,-,-
646,4.16,-,-,-,1.0546,2.5328,-149.27,1.0304,2.4749,90.07,251.6,144.4,-,-,-
nDL2,4.16,1.0432,2.5054,-30.79,1.0669,2.5624,-148.54,1.0266,2.4657,90.18,40.0,23.2,-,-,-
nDL,4.16,1.0407,2.4995,-30.86,1.0685,2.5663,-148.28,1.0221,2.4549,90.31,-,-,-,-,-
nDL4,4.16,1.0382,2.4936,-30.93,1.0702,2.5703,-148.01,1.0177,2.4444,90.45,40.0,23.2,-,-,-
DL,4.16,1.0407,2.4995,-30.86,1.0685,2.5663,-148.28,1.0221,2.4549,90.31,40.0,23.2,-,-,-
nDL5,4.16,1.0358,2.4878,-31.00,1.0720,2.5746,-147.74,1.0135,2.4342,90.59,40.0,23.2,-,-,-
671,4.16,1.0334,2.4820,-31.07,1.0738,2.5791,-147.47,1.0094,2.4244,90.75,1155.0,660.0,-,-,-
684,4.16,1.0315,2.4774,-31.10,-,-,-,1.0074,2.4195,90.64,-,-,-,-,-
680,4.16,1.0334,2.4820,-31.07,1.0738,2.5791,-147.47,1.0094,2.4244,90.75,-,-,-,-,-
692,4.16,1.0334,2.4820,-31.07,1.0738,2.5791,-147.47,1.0094,2.4244,90.75,175.2,155.6,-,-,-
652,4.16,1.0265,2.4654,-31.01,-,-,-,-,-,-,134.9,90.6,-,-,-
611,4.16,-,-,-,-,-,-,1.0055,2.4150,90.50,170.9,80.4,101.1,-,-
675,4.16,1.0271,2.4669,-31.41,1.0781,2.5893,-147.63,1.0072,2.4191,90.83,843.0,462.0,646.3,-,-
DG,0.69,1.0302,0.4104,-172.43,1.0390,0.4139,67.08,1.0269,0.4091,-53.10,-,-,-,3240.0,0.0
